/content/drive/MyDrive/MG_docking_project/04_analysis/poses/AzoR1_smina_top_pose.pdbqt
 OpenBabel08302616363D

 25 27  0  0  1  0  0  0  0  0999 V2000
   17.7140    2.7780    1.1180 C   0  0  0  0  0  0  0  0  0  0  0  0
   16.4180    3.3100    1.2460 C   0  0  0  0  0  3  0  0  0  0  0  0
   15.4230    2.6910    2.0170 C   0  0  0  0  0  3  0  0  0  0  0  0
   15.6910    1.4960    2.6820 C   0  0  0  0  0  0  0  0  0  0  0  0
   16.9640    0.9390    2.5730 C   0  0  0  0  0  3  0  0  0  0  0  0
   17.9490    1.5690    1.7980 C   0  0  0  0  0  3  0  0  0  0  0  0
   18.6940    3.3880    0.3250 N   0  0  0  0  0  0  0  0  0  0  0  0
   19.9130    2.6420    0.0080 C   0  0  0  0  0  1  0  0  0  0  0  0
   18.8590    4.8400    0.3990 C   0  0  0  0  0  1  0  0  0  0  0  0
   14.6340    0.8190    3.4790 C   0  0  2  0  0  3  0  0  0  0  0  0
   14.6430    0.8810    4.8450 C   0  0  0  0  0  0  0  0  0  0  0  0
   15.6810    1.6120    5.5770 C   0  0  0  0  0  3  0  0  0  0  0  0
   13.6150    0.2210    5.6530 C   0  0  0  0  0  3  0  0  0  0  0  0
   15.7080    1.6850    6.9150 C   0  0  0  0  0  3  0  0  0  0  0  0
   13.6050    0.2710    6.9930 C   0  0  0  0  0  3  0  0  0  0  0  0
   14.6630    1.0150    7.7550 C   0  0  0  0  0  0  0  0  0  0  0  0
   14.6710    1.0750    9.0560 N   0  0  0  0  0  0  0  0  0  0  0  0
   15.7820    1.7220    9.8240 C   0  0  0  0  0  1  0  0  0  0  0  0
   13.5710    0.5020    9.8960 C   0  0  0  0  0  1  0  0  0  0  0  0
   13.5700    0.0720    2.7560 C   0  0  0  0  0  0  0  0  0  0  0  0
   12.4050    0.7300    2.3400 C   0  0  0  0  0  3  0  0  0  0  0  0
   13.7220   -1.2950    2.4890 C   0  0  0  0  0  3  0  0  0  0  0  0
   11.4100    0.0300    1.6560 C   0  0  0  0  0  3  0  0  0  0  0  0
   12.7250   -1.9920    1.8060 C   0  0  0  0  0  3  0  0  0  0  0  0
   11.5710   -1.3290    1.3890 C   0  0  0  0  0  3  0  0  0  0  0  0
  1  2  2  0  0  0  0
  1  6  1  0  0  0  0
  2  3  1  0  0  0  0
  3  4  2  0  0  0  0
  5  4  1  0  0  0  0
  6  5  2  0  0  0  0
  7  9  1  0  0  0  0
  7  1  1  0  0  0  0
  8  7  1  0  0  0  0
 10  4  1  1  0  0  0
 10 11  1  0  0  0  0
 11 12  2  0  0  0  0
 11 13  1  0  0  0  0
 12 14  1  0  0  0  0
 13 15  2  0  0  0  0
 14 16  2  0  0  0  0
 15 16  1  0  0  0  0
 16 17  1  0  0  0  0
 17 18  1  0  0  0  0
 17 19  1  0  0  0  0
 20 10  1  0  0  0  0
 21 20  2  0  0  0  0
 22 20  1  0  0  0  0
 23 21  1  0  0  0  0
 24 22  2  0  0  0  0
 25 23  2  0  0  0  0
 25 24  1  0  0  0  0
M  END
>  <REMARK>
 minimizedAffinity -6.19471359
 minimizedRMSD -1
 SMILES CN(C)c1ccc(C(=C2C=CC(=[N+](C)C)C=C2)c2ccccc2)cc1
 SMILES IDX 4 1 5 2 6 3 7 4 24 5 25 6 2 7 1 8 3 9 8 10 9 11 10 12 17 13
 SMILES IDX 11 14 16 15 12 16 13 17 14 18 15 19 18 20 19 21 23 22 20 23
 SMILES IDX 22 24 21 25
 H PARENT

>  <TORSDO>
F 3

$$$$
