/content/drive/MyDrive/MG_docking_project/04_analysis/poses/AzoR1_swissdock_top_pose.pdbqt
 OpenBabel08302616363D

 25 27  0  0  1  0  0  0  0  0999 V2000
   20.7890    2.6530    3.6390 C   0  0  1  0  0  3  0  0  0  0  0  0
   21.1360    3.2740    4.8000 C   0  0  0  0  0  0  0  0  0  0  0  0
   22.5600    3.4950    5.1650 C   0  0  0  0  0  3  0  0  0  0  0  0
   22.9030    4.1020    6.3040 C   0  0  0  0  0  3  0  0  0  0  0  0
   21.8750    4.5930    7.2700 C   0  0  0  0  0  0  0  0  0  0  0  0
   22.2120    5.1960    8.3990 N   0  0  0  0  0  0  0  0  0  0  0  0
   21.1890    5.6730    9.3450 C   0  0  0  0  0  1  0  0  0  0  0  0
   23.6260    5.4150    8.7560 C   0  0  0  0  0  1  0  0  0  0  0  0
   20.4470    4.3680    6.8970 C   0  0  0  0  0  3  0  0  0  0  0  0
   20.1080    3.7580    5.7590 C   0  0  0  0  0  3  0  0  0  0  0  0
   19.3910    2.2420    3.3570 C   0  0  0  0  0  0  0  0  0  0  0  0
   16.7490    1.4390    2.7410 C   0  0  0  0  0  0  0  0  0  0  0  0
   17.6320    0.5680    3.4140 C   0  0  0  0  0  3  0  0  0  0  0  0
   17.2220    2.7150    2.3720 C   0  0  0  0  0  3  0  0  0  0  0  0
   18.9390    0.9640    3.7120 C   0  0  0  0  0  3  0  0  0  0  0  0
   18.5290    3.1080    2.6720 C   0  0  0  0  0  3  0  0  0  0  0  0
   15.3900    1.0290    2.4320 N   0  0  0  0  0  0  0  0  0  0  0  0
   14.4710    1.9470    1.7470 C   0  0  0  0  0  1  0  0  0  0  0  0
   14.9130   -0.3100    2.7980 C   0  0  0  0  0  1  0  0  0  0  0  0
   21.7860    2.3490    2.5830 C   0  0  0  0  0  0  0  0  0  0  0  0
   21.9040    3.1770    1.4530 C   0  0  0  0  0  3  0  0  0  0  0  0
   22.5760    1.1920    2.6740 C   0  0  0  0  0  3  0  0  0  0  0  0
   22.8220    2.8650    0.4450 C   0  0  0  0  0  3  0  0  0  0  0  0
   23.4920    0.8830    1.6630 C   0  0  0  0  0  3  0  0  0  0  0  0
   23.6160    1.7200    0.5510 C   0  0  0  0  0  3  0  0  0  0  0  0
  1 20  1  6  0  0  0
  1  2  1  0  0  0  0
  2  3  2  0  0  0  0
  2 10  1  0  0  0  0
  3  4  1  0  0  0  0
  4  5  2  0  0  0  0
  5  6  1  0  0  0  0
  6  8  1  0  0  0  0
  6  7  1  0  0  0  0
  9  5  1  0  0  0  0
 10  9  2  0  0  0  0
 11  1  1  0  0  0  0
 11 15  1  0  0  0  0
 12 13  1  0  0  0  0
 13 15  2  0  0  0  0
 14 16  1  0  0  0  0
 14 12  2  0  0  0  0
 16 11  2  0  0  0  0
 17 12  1  0  0  0  0
 17 19  1  0  0  0  0
 18 17  1  0  0  0  0
 20 22  1  0  0  0  0
 21 20  2  0  0  0  0
 23 25  2  0  0  0  0
 23 21  1  0  0  0  0
 24 22  2  0  0  0  0
 25 24  1  0  0  0  0
M  END
>  <REMARK>
 VINA RESULT:    -7.048      0.000      0.000
 INTER + INTRA:          -9.485
 INTER:                  -8.284
 INTRA:                  -1.201
 UNBOUND:                -1.201
 SMILES CN(C)c1ccc(C(=C2C=CC(=[N+](C)C)C=C2)c2ccccc2)cc1
 SMILES IDX 8 1 9 2 10 3 11 4 12 5 13 6 14 7 15 8 16 9 17 10 7 11 4 12
 SMILES IDX 5 13 25 14 6 15 24 16 2 17 1 18 3 19 18 20 19 21 23 22 20 23
 SMILES IDX 22 24 21 25
 H PARENT
 Flexibility Score: inf

>  <TORSDO>
F 3

$$$$
