/content/drive/MyDrive/MG_docking_project/04_analysis/poses/AzoR1_top_pose.pdbqt
 OpenBabel08302616363D

 25 27  0  0  1  0  0  0  0  0999 V2000
   16.4730    2.3980    2.2120 C   0  0  0  0  0  0  0  0  0  0  0  0
   17.2400    1.3460    2.7470 C   0  0  0  0  0  3  0  0  0  0  0  0
   18.5890    1.5010    3.0980 C   0  0  0  0  0  3  0  0  0  0  0  0
   19.2280    2.7250    2.9100 C   0  0  0  0  0  0  0  0  0  0  0  0
   18.4990    3.7880    2.3790 C   0  0  0  0  0  3  0  0  0  0  0  0
   17.1510    3.6180    2.0320 C   0  0  0  0  0  3  0  0  0  0  0  0
   15.1340    2.2280    1.8390 N   0  0  0  0  0  0  0  0  0  0  0  0
   14.2410    3.3880    1.8620 C   0  0  0  0  0  1  0  0  0  0  0  0
   14.4860    0.9430    2.1020 C   0  0  0  0  0  1  0  0  0  0  0  0
   20.6650    2.8900    3.2540 C   0  0  2  0  0  3  0  0  0  0  0  0
   21.0380    3.4160    4.4590 C   0  0  0  0  0  0  0  0  0  0  0  0
   20.0500    3.8340    5.4570 C   0  0  0  0  0  3  0  0  0  0  0  0
   22.4470    3.5910    4.8220 C   0  0  0  0  0  3  0  0  0  0  0  0
   20.3940    4.3520    6.6450 C   0  0  0  0  0  3  0  0  0  0  0  0
   22.8330    4.1040    5.9990 C   0  0  0  0  0  3  0  0  0  0  0  0
   21.8310    4.5370    7.0290 C   0  0  0  0  0  0  0  0  0  0  0  0
   22.1860    5.0370    8.1780 N   0  0  0  0  0  0  0  0  0  0  0  0
   21.1930    5.5710    9.1640 C   0  0  0  0  0  1  0  0  0  0  0  0
   23.6170    5.1220    8.6120 C   0  0  0  0  0  1  0  0  0  0  0  0
   21.6850    2.4710    2.2560 C   0  0  0  0  0  0  0  0  0  0  0  0
   21.9210    3.2520    1.1160 C   0  0  0  0  0  3  0  0  0  0  0  0
   22.4160    1.2910    2.4450 C   0  0  0  0  0  3  0  0  0  0  0  0
   22.8830    2.8610    0.1840 C   0  0  0  0  0  3  0  0  0  0  0  0
   23.3770    0.9030    1.5100 C   0  0  0  0  0  3  0  0  0  0  0  0
   23.6110    1.6890    0.3820 C   0  0  0  0  0  3  0  0  0  0  0  0
  1  2  1  0  0  0  0
  2  3  2  0  0  0  0
  4  3  1  0  0  0  0
  4 10  1  0  0  0  0
  5  4  2  0  0  0  0
  6  1  2  0  0  0  0
  6  5  1  0  0  0  0
  7  8  1  0  0  0  0
  7  9  1  0  0  0  0
  7  1  1  0  0  0  0
 10 20  1  6  0  0  0
 10 11  1  0  0  0  0
 11 13  2  0  0  0  0
 11 12  1  0  0  0  0
 12 14  2  0  0  0  0
 13 15  1  0  0  0  0
 14 16  1  0  0  0  0
 15 16  2  0  0  0  0
 16 17  1  0  0  0  0
 17 19  1  0  0  0  0
 17 18  1  0  0  0  0
 20 22  1  0  0  0  0
 21 20  2  0  0  0  0
 23 25  2  0  0  0  0
 23 21  1  0  0  0  0
 24 22  2  0  0  0  0
 25 24  1  0  0  0  0
M  END
>  <REMARK>
 VINA RESULT:    -7.111      0.000      0.000
 INTER + INTRA:          -9.481
 INTER:                  -8.358
 INTRA:                  -1.124
 UNBOUND:                -1.124
 SMILES CN(C)c1ccc(C(=C2C=CC(=[N+](C)C)C=C2)c2ccccc2)cc1
 SMILES IDX 4 1 5 2 6 3 7 4 24 5 25 6 2 7 1 8 3 9 8 10 9 11 10 12 17 13
 SMILES IDX 11 14 16 15 12 16 13 17 14 18 15 19 18 20 19 21 23 22 20 23
 SMILES IDX 22 24 21 25
 H PARENT

>  <TORSDO>
F 3

$$$$
