/content/drive/MyDrive/MG_docking_project/04_analysis/poses/BsDyP_smina_top_pose.pdbqt
 OpenBabel08302616363D

 25 27  0  0  1  0  0  0  0  0999 V2000
   32.6720   -8.2710  -19.4560 C   0  0  0  0  0  0  0  0  0  0  0  0
   31.9080   -9.0410  -20.3540 C   0  0  0  0  0  3  0  0  0  0  0  0
   30.5670   -8.7500  -20.6410 C   0  0  0  0  0  3  0  0  0  0  0  0
   29.9320   -7.6740  -20.0220 C   0  0  0  0  0  0  0  0  0  0  0  0
   30.6580   -6.8930  -19.1240 C   0  0  0  0  0  3  0  0  0  0  0  0
   32.0000   -7.1960  -18.8460 C   0  0  0  0  0  3  0  0  0  0  0  0
   34.0030   -8.5840  -19.1540 N   0  0  0  0  0  0  0  0  0  0  0  0
   35.0540   -7.6350  -19.5240 C   0  0  0  0  0  1  0  0  0  0  0  0
   34.4130   -9.9890  -19.1430 C   0  0  0  0  0  1  0  0  0  0  0  0
   28.5030   -7.3750  -20.3000 C   0  0  1  0  0  3  0  0  0  0  0  0
   28.1490   -6.5720  -21.3480 C   0  0  0  0  0  0  0  0  0  0  0  0
   29.1520   -5.9770  -22.2360 C   0  0  0  0  0  3  0  0  0  0  0  0
   26.7480   -6.2600  -21.6430 C   0  0  0  0  0  3  0  0  0  0  0  0
   28.8270   -5.1870  -23.2690 C   0  0  0  0  0  3  0  0  0  0  0  0
   26.3810   -5.4750  -22.6660 C   0  0  0  0  0  3  0  0  0  0  0  0
   27.3980   -4.8590  -23.5820 C   0  0  0  0  0  0  0  0  0  0  0  0
   27.0610   -4.0940  -24.5810 N   0  0  0  0  0  0  0  0  0  0  0  0
   28.0730   -3.3900  -25.4310 C   0  0  0  0  0  1  0  0  0  0  0  0
   25.6340   -3.8530  -24.9660 C   0  0  0  0  0  1  0  0  0  0  0  0
   27.4680   -7.9700  -19.4120 C   0  0  0  0  0  0  0  0  0  0  0  0
   27.3000   -7.4910  -18.1060 C   0  0  0  0  0  3  0  0  0  0  0  0
   26.6570   -9.0150  -19.8720 C   0  0  0  0  0  3  0  0  0  0  0  0
   26.3240   -8.0450  -17.2750 C   0  0  0  0  0  3  0  0  0  0  0  0
   25.6840   -9.5670  -19.0390 C   0  0  0  0  0  3  0  0  0  0  0  0
   25.5160   -9.0810  -17.7430 C   0  0  0  0  0  3  0  0  0  0  0  0
  1  7  1  0  0  0  0
  1  6  1  0  0  0  0
  2  1  2  0  0  0  0
  3  2  1  0  0  0  0
  3  4  2  0  0  0  0
  4  5  1  0  0  0  0
  5  6  2  0  0  0  0
  7  9  1  0  0  0  0
  8  7  1  0  0  0  0
 10 11  1  6  0  0  0
 10  4  1  0  0  0  0
 10 20  1  0  0  0  0
 12 11  2  0  0  0  0
 13 11  1  0  0  0  0
 14 12  1  0  0  0  0
 15 13  2  0  0  0  0
 16 14  2  0  0  0  0
 16 15  1  0  0  0  0
 17 16  1  0  0  0  0
 18 17  1  0  0  0  0
 19 17  1  0  0  0  0
 20 21  1  0  0  0  0
 21 23  2  0  0  0  0
 22 20  2  0  0  0  0
 22 24  1  0  0  0  0
 24 25  2  0  0  0  0
 25 23  1  0  0  0  0
M  END
>  <REMARK>
 minimizedAffinity -5.82315397
 minimizedRMSD -1
 SMILES CN(C)c1ccc(C(=C2C=CC(=[N+](C)C)C=C2)c2ccccc2)cc1
 SMILES IDX 4 1 5 2 6 3 7 4 24 5 25 6 2 7 1 8 3 9 8 10 9 11 10 12 17 13
 SMILES IDX 11 14 16 15 12 16 13 17 14 18 15 19 18 20 19 21 23 22 20 23
 SMILES IDX 22 24 21 25
 H PARENT

>  <TORSDO>
F 3

$$$$
