/content/drive/MyDrive/MG_docking_project/04_analysis/poses/BsDyP_swissdock_top_pose.pdbqt
 OpenBabel08302616363D

 25 27  0  0  1  0  0  0  0  0999 V2000
   28.3480   -7.4840  -20.5880 C   0  0  2  0  0  3  0  0  0  0  0  0
   28.0090   -6.6860  -21.6380 C   0  0  0  0  0  0  0  0  0  0  0  0
   28.9850   -6.3560  -22.7080 C   0  0  0  0  0  3  0  0  0  0  0  0
   28.6550   -5.5740  -23.7390 C   0  0  0  0  0  3  0  0  0  0  0  0
   27.2880   -4.9880  -23.8710 C   0  0  0  0  0  0  0  0  0  0  0  0
   26.9580   -4.2120  -24.8910 N   0  0  0  0  0  0  0  0  0  0  0  0
   27.9310   -3.8870  -25.9490 C   0  0  0  0  0  1  0  0  0  0  0  0
   25.6050   -3.6400  -25.0110 C   0  0  0  0  0  1  0  0  0  0  0  0
   26.3110   -5.3220  -22.7910 C   0  0  0  0  0  3  0  0  0  0  0  0
   26.6450   -6.1060  -21.7630 C   0  0  0  0  0  3  0  0  0  0  0  0
   29.7510   -7.9000  -20.3410 C   0  0  0  0  0  0  0  0  0  0  0  0
   32.3990   -8.7370  -19.8030 C   0  0  0  0  0  0  0  0  0  0  0  0
   31.9320   -7.4820  -19.3590 C   0  0  0  0  0  3  0  0  0  0  0  0
   31.5060   -9.5690  -20.5120 C   0  0  0  0  0  3  0  0  0  0  0  0
   30.6230   -7.0740  -19.6200 C   0  0  0  0  0  3  0  0  0  0  0  0
   30.1970   -9.1560  -20.7720 C   0  0  0  0  0  3  0  0  0  0  0  0
   33.7600   -9.1640  -19.5330 N   0  0  0  0  0  0  0  0  0  0  0  0
   34.8460   -8.1800  -19.4340 C   0  0  0  0  0  1  0  0  0  0  0  0
   34.0750  -10.5870  -19.3540 C   0  0  0  0  0  1  0  0  0  0  0  0
   27.3360   -7.9880  -19.6260 C   0  0  0  0  0  0  0  0  0  0  0  0
   26.4180   -8.9810  -20.0110 C   0  0  0  0  0  3  0  0  0  0  0  0
   27.3320   -7.5210  -18.3020 C   0  0  0  0  0  3  0  0  0  0  0  0
   25.4910   -9.4760  -19.0890 C   0  0  0  0  0  3  0  0  0  0  0  0
   26.4030   -8.0200  -17.3840 C   0  0  0  0  0  3  0  0  0  0  0  0
   25.4810   -8.9940  -17.7770 C   0  0  0  0  0  3  0  0  0  0  0  0
  1  2  1  6  0  0  0
  1 11  1  0  0  0  0
  1 20  1  0  0  0  0
  3  2  2  0  0  0  0
  4  3  1  0  0  0  0
  5  4  2  0  0  0  0
  5  9  1  0  0  0  0
  6  5  1  0  0  0  0
  7  6  1  0  0  0  0
  8  6  1  0  0  0  0
  9 10  2  0  0  0  0
 10  2  1  0  0  0  0
 11 15  1  0  0  0  0
 12 17  1  0  0  0  0
 12 13  1  0  0  0  0
 14 12  2  0  0  0  0
 15 13  2  0  0  0  0
 16 14  1  0  0  0  0
 16 11  2  0  0  0  0
 17 18  1  0  0  0  0
 17 19  1  0  0  0  0
 20 22  1  0  0  0  0
 21 20  2  0  0  0  0
 21 23  1  0  0  0  0
 22 24  2  0  0  0  0
 23 25  2  0  0  0  0
 25 24  1  0  0  0  0
M  END
>  <REMARK>
 VINA RESULT:    -7.621      0.000      0.000
 INTER + INTRA:         -10.166
 INTER:                  -8.958
 INTRA:                  -1.209
 UNBOUND:                -1.209
 SMILES CN(C)c1ccc(C(=C2C=CC(=[N+](C)C)C=C2)c2ccccc2)cc1
 SMILES IDX 8 1 9 2 10 3 11 4 12 5 13 6 14 7 15 8 16 9 17 10 7 11 4 12
 SMILES IDX 5 13 25 14 6 15 24 16 2 17 1 18 3 19 18 20 19 21 23 22 20 23
 SMILES IDX 22 24 21 25
 H PARENT
 Flexibility Score: inf

>  <TORSDO>
F 3

$$$$
