/content/drive/MyDrive/MG_docking_project/04_analysis/poses/BsDyP_top_pose.pdbqt
 OpenBabel08302616363D

 25 27  0  0  1  0  0  0  0  0999 V2000
   32.5540   -8.3810  -19.6530 C   0  0  0  0  0  0  0  0  0  0  0  0
   31.7440   -9.1520  -20.5080 C   0  0  0  0  0  3  0  0  0  0  0  0
   30.4030   -8.8300  -20.7660 C   0  0  0  0  0  3  0  0  0  0  0  0
   29.8170   -7.7200  -20.1600 C   0  0  0  0  0  0  0  0  0  0  0  0
   30.5900   -6.9370  -19.3050 C   0  0  0  0  0  3  0  0  0  0  0  0
   31.9290   -7.2710  -19.0550 C   0  0  0  0  0  3  0  0  0  0  0  0
   33.8830   -8.7240  -19.3780 N   0  0  0  0  0  0  0  0  0  0  0  0
   34.9470   -7.7920  -19.7570 C   0  0  0  0  0  1  0  0  0  0  0  0
   34.2640  -10.1370  -19.3910 C   0  0  0  0  0  1  0  0  0  0  0  0
   28.3890   -7.3880  -20.4080 C   0  0  2  0  0  3  0  0  0  0  0  0
   28.0330   -6.5660  -21.4410 C   0  0  0  0  0  0  0  0  0  0  0  0
   29.0310   -5.9840  -22.3430 C   0  0  0  0  0  3  0  0  0  0  0  0
   26.6340   -6.2210  -21.7060 C   0  0  0  0  0  3  0  0  0  0  0  0
   28.7040   -5.1770  -23.3610 C   0  0  0  0  0  3  0  0  0  0  0  0
   26.2650   -5.4180  -22.7140 C   0  0  0  0  0  3  0  0  0  0  0  0
   27.2770   -4.8150  -23.6430 C   0  0  0  0  0  0  0  0  0  0  0  0
   26.9380   -4.0330  -24.6290 N   0  0  0  0  0  0  0  0  0  0  0  0
   27.9490   -3.3420  -25.4910 C   0  0  0  0  0  1  0  0  0  0  0  0
   25.5100   -3.7570  -24.9830 C   0  0  0  0  0  1  0  0  0  0  0  0
   27.3590   -7.9680  -19.5060 C   0  0  0  0  0  0  0  0  0  0  0  0
   27.2440   -7.5180  -18.1840 C   0  0  0  0  0  3  0  0  0  0  0  0
   26.4990   -8.9720  -19.9690 C   0  0  0  0  0  3  0  0  0  0  0  0
   26.2720   -8.0590  -17.3400 C   0  0  0  0  0  3  0  0  0  0  0  0
   25.5300   -9.5120  -19.1220 C   0  0  0  0  0  3  0  0  0  0  0  0
   25.4160   -9.0540  -17.8100 C   0  0  0  0  0  3  0  0  0  0  0  0
  1  7  1  0  0  0  0
  1  6  1  0  0  0  0
  2  1  2  0  0  0  0
  3  2  1  0  0  0  0
  3  4  2  0  0  0  0
  4  5  1  0  0  0  0
  5  6  2  0  0  0  0
  8  7  1  0  0  0  0
  9  7  1  0  0  0  0
 10 11  1  1  0  0  0
 10  4  1  0  0  0  0
 10 20  1  0  0  0  0
 12 11  2  0  0  0  0
 13 11  1  0  0  0  0
 14 12  1  0  0  0  0
 15 13  2  0  0  0  0
 16 14  2  0  0  0  0
 16 15  1  0  0  0  0
 17 16  1  0  0  0  0
 18 17  1  0  0  0  0
 19 17  1  0  0  0  0
 20 21  1  0  0  0  0
 21 23  2  0  0  0  0
 22 20  2  0  0  0  0
 22 24  1  0  0  0  0
 24 25  2  0  0  0  0
 25 23  1  0  0  0  0
M  END
>  <REMARK>
 VINA RESULT:    -7.660      0.000      0.000
 INTER + INTRA:         -10.052
 INTER:                  -9.004
 INTRA:                  -1.048
 UNBOUND:                -1.048
 SMILES CN(C)c1ccc(C(=C2C=CC(=[N+](C)C)C=C2)c2ccccc2)cc1
 SMILES IDX 4 1 5 2 6 3 7 4 24 5 25 6 2 7 1 8 3 9 8 10 9 11 10 12 17 13
 SMILES IDX 11 14 16 15 12 16 13 17 14 18 15 19 18 20 19 21 23 22 20 23
 SMILES IDX 22 24 21 25
 H PARENT

>  <TORSDO>
F 3

$$$$
