/content/drive/MyDrive/MG_docking_project/04_analysis/poses/cotA_top_pose.pdbqt
 OpenBabel08302616363D

 25 27  0  0  1  0  0  0  0  0999 V2000
   27.4830  -46.8560   54.7570 C   0  0  0  0  0  0  0  0  0  0  0  0
   26.2740  -47.2600   55.3550 C   0  0  0  0  0  3  0  0  0  0  0  0
   25.1030  -47.4730   54.6140 C   0  0  0  0  0  3  0  0  0  0  0  0
   25.0970  -47.2740   53.2340 C   0  0  0  0  0  0  0  0  0  0  0  0
   26.2760  -46.8700   52.6100 C   0  0  0  0  0  3  0  0  0  0  0  0
   27.4400  -46.6600   53.3640 C   0  0  0  0  0  3  0  0  0  0  0  0
   28.6410  -46.6190   55.5070 N   0  0  0  0  0  0  0  0  0  0  0  0
   28.7060  -45.4230   56.3480 C   0  0  0  0  0  1  0  0  0  0  0  0
   29.9280  -47.0770   54.9810 C   0  0  0  0  0  1  0  0  0  0  0  0
   23.8530  -47.4720   52.4450 C   0  0  2  0  0  3  0  0  0  0  0  0
   23.0300  -46.4170   52.1640 C   0  0  0  0  0  0  0  0  0  0  0  0
   23.3350  -45.0580   52.6200 C   0  0  0  0  0  3  0  0  0  0  0  0
   21.7970  -46.5850   51.3900 C   0  0  0  0  0  3  0  0  0  0  0  0
   22.5420  -44.0100   52.3560 C   0  0  0  0  0  3  0  0  0  0  0  0
   20.9780  -45.5630   51.1030 C   0  0  0  0  0  3  0  0  0  0  0  0
   21.2780  -44.1670   51.5650 C   0  0  0  0  0  0  0  0  0  0  0  0
   20.4940  -43.1610   51.2960 N   0  0  0  0  0  0  0  0  0  0  0  0
   20.7310  -41.7890   51.8460 C   0  0  0  0  0  1  0  0  0  0  0  0
   19.2900  -43.2910   50.4160 C   0  0  0  0  0  1  0  0  0  0  0  0
   23.5240  -48.8420   51.9710 C   0  0  0  0  0  0  0  0  0  0  0  0
   22.2860  -49.4200   52.2830 C   0  0  0  0  0  3  0  0  0  0  0  0
   24.4510  -49.5680   51.2120 C   0  0  0  0  0  3  0  0  0  0  0  0
   21.9770  -50.7040   51.8320 C   0  0  0  0  0  3  0  0  0  0  0  0
   24.1390  -50.8530   50.7630 C   0  0  0  0  0  3  0  0  0  0  0  0
   22.9020  -51.4180   51.0720 C   0  0  0  0  0  3  0  0  0  0  0  0
  1  2  1  0  0  0  0
  1  7  1  0  0  0  0
  3  2  2  0  0  0  0
  4  3  1  0  0  0  0
  5  4  2  0  0  0  0
  5  6  1  0  0  0  0
  6  1  2  0  0  0  0
  7  8  1  0  0  0  0
  9  7  1  0  0  0  0
 10 20  1  1  0  0  0
 10  4  1  0  0  0  0
 11 10  1  0  0  0  0
 11 12  1  0  0  0  0
 13 11  2  0  0  0  0
 14 12  2  0  0  0  0
 15 13  1  0  0  0  0
 15 16  2  0  0  0  0
 16 14  1  0  0  0  0
 17 16  1  0  0  0  0
 17 18  1  0  0  0  0
 19 17  1  0  0  0  0
 20 21  1  0  0  0  0
 22 20  2  0  0  0  0
 23 21  2  0  0  0  0
 24 25  2  0  0  0  0
 24 22  1  0  0  0  0
 25 23  1  0  0  0  0
M  END
>  <REMARK>
 VINA RESULT:    -6.765      0.000      0.000
 INTER + INTRA:          -8.712
 INTER:                  -7.951
 INTRA:                  -0.761
 UNBOUND:                -0.761
 SMILES CN(C)c1ccc(C(=C2C=CC(=[N+](C)C)C=C2)c2ccccc2)cc1
 SMILES IDX 4 1 5 2 6 3 7 4 24 5 25 6 2 7 1 8 3 9 8 10 9 11 10 12 17 13
 SMILES IDX 11 14 16 15 12 16 13 17 14 18 15 19 18 20 19 21 23 22 20 23
 SMILES IDX 22 24 21 25
 H PARENT

>  <TORSDO>
F 3

$$$$
