/content/drive/MyDrive/MG_docking_project/04_analysis/poses/cotA_smina_top_pose.pdbqt
 OpenBabel08302616363D

 25 27  0  0  1  0  0  0  0  0999 V2000
   21.8450  -60.4230   51.2940 C   0  0  0  0  0  0  0  0  0  0  0  0
   21.0700  -59.2490   51.2440 C   0  0  0  0  0  3  0  0  0  0  0  0
   21.4710  -58.0570   51.8650 C   0  0  0  0  0  3  0  0  0  0  0  0
   22.6680  -58.0020   52.5760 C   0  0  0  0  0  0  0  0  0  0  0  0
   23.4580  -59.1470   52.6480 C   0  0  0  0  0  3  0  0  0  0  0  0
   23.0450  -60.3330   52.0230 C   0  0  0  0  0  3  0  0  0  0  0  0
   21.4260  -61.6180   50.6960 N   0  0  0  0  0  0  0  0  0  0  0  0
   20.0750  -61.6920   50.1350 C   0  0  0  0  0  1  0  0  0  0  0  0
   21.9570  -62.8840   51.2010 C   0  0  0  0  0  1  0  0  0  0  0  0
   23.0870  -56.7490   53.2580 C   0  0  2  0  0  3  0  0  0  0  0  0
   22.5790  -56.4200   54.4840 C   0  0  0  0  0  0  0  0  0  0  0  0
   21.6120  -57.2770   55.1740 C   0  0  0  0  0  3  0  0  0  0  0  0
   22.9740  -55.1910   55.1780 C   0  0  0  0  0  3  0  0  0  0  0  0
   21.1010  -56.9730   56.3760 C   0  0  0  0  0  3  0  0  0  0  0  0
   22.4880  -54.8510   56.3800 C   0  0  0  0  0  3  0  0  0  0  0  0
   21.4960  -55.7190   57.0970 C   0  0  0  0  0  0  0  0  0  0  0  0
   21.0120  -55.4050   58.2650 N   0  0  0  0  0  0  0  0  0  0  0  0
   19.9420  -56.2110   58.9350 C   0  0  0  0  0  1  0  0  0  0  0  0
   21.4840  -54.2130   59.0390 C   0  0  0  0  0  1  0  0  0  0  0  0
   24.0690  -55.8640   52.5770 C   0  0  0  0  0  0  0  0  0  0  0  0
   25.4400  -56.1440   52.6490 C   0  0  0  0  0  3  0  0  0  0  0  0
   23.6310  -54.7430   51.8610 C   0  0  0  0  0  3  0  0  0  0  0  0
   26.3600  -55.3160   52.0040 C   0  0  0  0  0  3  0  0  0  0  0  0
   24.5540  -53.9170   51.2170 C   0  0  0  0  0  3  0  0  0  0  0  0
   25.9170  -54.2050   51.2880 C   0  0  0  0  0  3  0  0  0  0  0  0
  1  6  1  0  0  0  0
  2  1  2  0  0  0  0
  2  3  1  0  0  0  0
  3  4  2  0  0  0  0
  4  5  1  0  0  0  0
  6  5  2  0  0  0  0
  7  9  1  0  0  0  0
  7  1  1  0  0  0  0
  8  7  1  0  0  0  0
 10  4  1  6  0  0  0
 10 11  1  0  0  0  0
 11 12  2  0  0  0  0
 11 13  1  0  0  0  0
 12 14  1  0  0  0  0
 13 15  2  0  0  0  0
 14 16  2  0  0  0  0
 15 16  1  0  0  0  0
 16 17  1  0  0  0  0
 17 18  1  0  0  0  0
 17 19  1  0  0  0  0
 20 21  1  0  0  0  0
 20 10  1  0  0  0  0
 22 20  2  0  0  0  0
 23 21  2  0  0  0  0
 24 25  2  0  0  0  0
 24 22  1  0  0  0  0
 25 23  1  0  0  0  0
M  END
>  <REMARK>
 minimizedAffinity -5.70069981
 minimizedRMSD -1
 SMILES CN(C)c1ccc(C(=C2C=CC(=[N+](C)C)C=C2)c2ccccc2)cc1
 SMILES IDX 4 1 5 2 6 3 7 4 24 5 25 6 2 7 1 8 3 9 8 10 9 11 10 12 17 13
 SMILES IDX 11 14 16 15 12 16 13 17 14 18 15 19 18 20 19 21 23 22 20 23
 SMILES IDX 22 24 21 25
 H PARENT

>  <TORSDO>
F 3

$$$$
