/content/drive/MyDrive/MG_docking_project/04_analysis/poses/cotA_swissdock_top_pose.pdbqt
 OpenBabel08302616363D

 25 27  0  0  1  0  0  0  0  0999 V2000
   24.4310  -47.7690   52.9100 C   0  0  1  0  0  3  0  0  0  0  0  0
   24.4800  -49.1110   52.6890 C   0  0  0  0  0  0  0  0  0  0  0  0
   25.5630  -49.9530   53.2620 C   0  0  0  0  0  3  0  0  0  0  0  0
   25.6120  -51.2700   53.0470 C   0  0  0  0  0  3  0  0  0  0  0  0
   24.5850  -51.9660   52.2170 C   0  0  0  0  0  0  0  0  0  0  0  0
   24.6330  -53.2710   52.0020 N   0  0  0  0  0  0  0  0  0  0  0  0
   25.7090  -54.1010   52.5720 C   0  0  0  0  0  1  0  0  0  0  0  0
   23.6110  -53.9490   51.1820 C   0  0  0  0  0  1  0  0  0  0  0  0
   23.5000  -51.1150   51.6430 C   0  0  0  0  0  3  0  0  0  0  0  0
   23.4520  -49.7990   51.8630 C   0  0  0  0  0  3  0  0  0  0  0  0
   23.2550  -46.9520   52.5210 C   0  0  0  0  0  0  0  0  0  0  0  0
   21.0460  -45.3290   51.8180 C   0  0  0  0  0  0  0  0  0  0  0  0
   22.2360  -45.2990   51.0620 C   0  0  0  0  0  3  0  0  0  0  0  0
   20.9890  -46.1830   52.9400 C   0  0  0  0  0  3  0  0  0  0  0  0
   23.3280  -46.0960   51.4150 C   0  0  0  0  0  3  0  0  0  0  0  0
   22.0830  -46.9780   53.2900 C   0  0  0  0  0  3  0  0  0  0  0  0
   19.9100  -44.5030   51.4530 N   0  0  0  0  0  0  0  0  0  0  0  0
   20.0940  -43.3060   50.6230 C   0  0  0  0  0  1  0  0  0  0  0  0
   18.5570  -44.8490   51.9070 C   0  0  0  0  0  1  0  0  0  0  0  0
   25.5500  -47.0380   53.5550 C   0  0  0  0  0  0  0  0  0  0  0  0
   26.7410  -46.7900   52.8500 C   0  0  0  0  0  3  0  0  0  0  0  0
   25.4030  -46.5300   54.8560 C   0  0  0  0  0  3  0  0  0  0  0  0
   27.7770  -46.0700   53.4510 C   0  0  0  0  0  3  0  0  0  0  0  0
   26.4420  -45.8110   55.4540 C   0  0  0  0  0  3  0  0  0  0  0  0
   27.6290  -45.5830   54.7530 C   0  0  0  0  0  3  0  0  0  0  0  0
  1 11  1  1  0  0  0
  1 20  1  0  0  0  0
  2  1  1  0  0  0  0
  2  3  1  0  0  0  0
  4  3  2  0  0  0  0
  5  4  1  0  0  0  0
  6  5  1  0  0  0  0
  6  7  1  0  0  0  0
  8  6  1  0  0  0  0
  9 10  1  0  0  0  0
  9  5  2  0  0  0  0
 10  2  2  0  0  0  0
 11 16  1  0  0  0  0
 12 14  1  0  0  0  0
 13 15  1  0  0  0  0
 13 12  2  0  0  0  0
 14 16  2  0  0  0  0
 15 11  2  0  0  0  0
 17 12  1  0  0  0  0
 17 19  1  0  0  0  0
 18 17  1  0  0  0  0
 20 22  1  0  0  0  0
 21 23  1  0  0  0  0
 21 20  2  0  0  0  0
 22 24  2  0  0  0  0
 23 25  2  0  0  0  0
 25 24  1  0  0  0  0
M  END
>  <REMARK>
 VINA RESULT:    -6.298      0.000      0.000
 INTER + INTRA:          -8.636
 INTER:                  -7.402
 INTRA:                  -1.234
 UNBOUND:                -1.234
 SMILES CN(C)c1ccc(C(=C2C=CC(=[N+](C)C)C=C2)c2ccccc2)cc1
 SMILES IDX 8 1 9 2 10 3 11 4 12 5 13 6 14 7 15 8 16 9 17 10 7 11 4 12
 SMILES IDX 5 13 25 14 6 15 24 16 2 17 1 18 3 19 18 20 19 21 23 22 20 23
 SMILES IDX 22 24 21 25
 H PARENT
 Flexibility Score: inf

>  <TORSDO>
F 3

$$$$
