11294
 OpenBabel08252611223D

 51 52  0  0  0  0  0  0  0  0999 V2000
    1.0110   -2.9516    5.0873 Cl  0  5  0  0  0  0  0  0  0  0  0  0
    0.2339   -0.2483   -0.1711 N   0  0  0  0  0  0  0  0  0  0  0  0
   -4.8429   -0.9151    7.4574 N   0  3  0  0  0  0  0  0  0  0  0  0
   -1.8892    2.4628    4.3665 C   0  0  0  0  0  0  0  0  0  0  0  0
   -1.2609    1.8621    3.1684 C   0  0  0  0  0  0  0  0  0  0  0  0
   -2.8769    1.7663    5.0067 C   0  0  0  0  0  0  0  0  0  0  0  0
   -1.3191    3.7144    4.9319 C   0  0  0  0  0  0  0  0  0  0  0  0
   -0.1964    0.4945    0.9203 C   0  0  0  0  0  0  0  0  0  0  0  0
   -1.7131    2.1622    1.8850 C   0  0  0  0  0  0  0  0  0  0  0  0
   -0.2615    0.9030    3.3338 C   0  0  0  0  0  0  0  0  0  0  0  0
   -4.4592   -0.0096    6.6105 C   0  0  0  0  0  0  0  0  0  0  0  0
   -3.4823    2.2309    6.2589 C   0  0  0  0  0  0  0  0  0  0  0  0
   -3.4253    0.5211    4.4496 C   0  0  0  0  0  0  0  0  0  0  0  0
   -1.1830    1.4839    0.7839 C   0  0  0  0  0  0  0  0  0  0  0  0
    0.2645    0.2429    2.2232 C   0  0  0  0  0  0  0  0  0  0  0  0
   -4.2492    1.4268    7.0047 C   0  0  0  0  0  0  0  0  0  0  0  0
   -4.1799   -0.3173    5.1782 C   0  0  0  0  0  0  0  0  0  0  0  0
   -0.3528    3.6358    5.9439 C   0  0  0  0  0  0  0  0  0  0  0  0
   -1.7248    4.9742    4.4712 C   0  0  0  0  0  0  0  0  0  0  0  0
    0.1253    4.7954    6.5550 C   0  0  0  0  0  0  0  0  0  0  0  0
   -1.2257    6.1357    5.0688 C   0  0  0  0  0  0  0  0  0  0  0  0
    0.1439    0.2765   -1.5245 C   0  0  0  0  0  0  0  0  0  0  0  0
    1.0571   -1.4341    0.0410 C   0  0  0  0  0  0  0  0  0  0  0  0
   -4.8645   -2.3806    7.1427 C   0  0  0  0  0  0  0  0  0  0  0  0
   -5.1880   -0.5693    8.8692 C   0  0  0  0  0  0  0  0  0  0  0  0
   -0.3278    6.0441    6.1323 C   0  0  0  0  0  0  0  0  0  0  0  0
   -2.4380    2.8838    1.7478 H   0  0  0  0  0  0  0  0  0  0  0  0
    0.0890    0.6815    4.2789 H   0  0  0  0  0  0  0  0  0  0  0  0
   -3.3131    3.1996    6.5721 H   0  0  0  0  0  0  0  0  0  0  0  0
   -3.2236    0.2835    3.4658 H   0  0  0  0  0  0  0  0  0  0  0  0
   -1.5280    1.7181   -0.1602 H   0  0  0  0  0  0  0  0  0  0  0  0
    1.0151   -0.4514    2.3630 H   0  0  0  0  0  0  0  0  0  0  0  0
   -4.7000    1.7950    7.8568 H   0  0  0  0  0  0  0  0  0  0  0  0
   -4.5656   -1.1725    4.7480 H   0  0  0  0  0  0  0  0  0  0  0  0
    0.0073    2.7147    6.2389 H   0  0  0  0  0  0  0  0  0  0  0  0
   -2.3939    5.0450    3.6887 H   0  0  0  0  0  0  0  0  0  0  0  0
    0.8146    4.7287    7.3201 H   0  0  0  0  0  0  0  0  0  0  0  0
   -1.5219    7.0617    4.7226 H   0  0  0  0  0  0  0  0  0  0  0  0
   -0.4879    1.1401   -1.5309 H   0  0  0  0  0  0  0  0  0  0  0  0
   -0.2672   -0.4710   -2.1704 H   0  0  0  0  0  0  0  0  0  0  0  0
    1.1206    0.5467   -1.8680 H   0  0  0  0  0  0  0  0  0  0  0  0
    1.0310   -1.7059    1.0756 H   0  0  0  0  0  0  0  0  0  0  0  0
    2.0659   -1.2241   -0.2472 H   0  0  0  0  0  0  0  0  0  0  0  0
    0.6781   -2.2418   -0.5496 H   0  0  0  0  0  0  0  0  0  0  0  0
   -4.6059   -2.5286    6.1150 H   0  0  0  0  0  0  0  0  0  0  0  0
   -5.8446   -2.7699    7.3235 H   0  0  0  0  0  0  0  0  0  0  0  0
   -4.1582   -2.8895    7.7650 H   0  0  0  0  0  0  0  0  0  0  0  0
   -5.1461    0.4923    8.9969 H   0  0  0  0  0  0  0  0  0  0  0  0
   -4.4893   -1.0360    9.5317 H   0  0  0  0  0  0  0  0  0  0  0  0
   -6.1756   -0.9164    9.0903 H   0  0  0  0  0  0  0  0  0  0  0  0
    0.0007    6.9001    6.6059 H   0  0  0  0  0  0  0  0  0  0  0  0
  2  8  1  0  0  0  0
  2 22  1  0  0  0  0
  2 23  1  0  0  0  0
  3 11  2  0  0  0  0
  3 24  1  0  0  0  0
  3 25  1  0  0  0  0
  4  5  1  0  0  0  0
  4  6  2  0  0  0  0
  4  7  1  0  0  0  0
  5  9  2  0  0  0  0
  5 10  1  0  0  0  0
  6 12  1  0  0  0  0
  6 13  1  0  0  0  0
  7 18  2  0  0  0  0
  7 19  1  0  0  0  0
  8 14  2  0  0  0  0
  8 15  1  0  0  0  0
  9 14  1  0  0  0  0
  9 27  1  0  0  0  0
 10 15  2  0  0  0  0
 10 28  1  0  0  0  0
 11 16  1  0  0  0  0
 11 17  1  0  0  0  0
 12 16  2  0  0  0  0
 12 29  1  0  0  0  0
 13 17  2  0  0  0  0
 13 30  1  0  0  0  0
 14 31  1  0  0  0  0
 15 32  1  0  0  0  0
 16 33  1  0  0  0  0
 17 34  1  0  0  0  0
 18 20  1  0  0  0  0
 18 35  1  0  0  0  0
 19 21  2  0  0  0  0
 19 36  1  0  0  0  0
 20 26  2  0  0  0  0
 20 37  1  0  0  0  0
 21 26  1  0  0  0  0
 21 38  1  0  0  0  0
 22 39  1  0  0  0  0
 22 40  1  0  0  0  0
 22 41  1  0  0  0  0
 23 42  1  0  0  0  0
 23 43  1  0  0  0  0
 23 44  1  0  0  0  0
 24 45  1  0  0  0  0
 24 46  1  0  0  0  0
 24 47  1  0  0  0  0
 25 48  1  0  0  0  0
 25 49  1  0  0  0  0
 25 50  1  0  0  0  0
 26 51  1  0  0  0  0
M  CHG  2   1  -1   3   1
M  END
>  <PUBCHEM_COMPOUND_CID>
11294

>  <PUBCHEM_COMPOUND_CANONICALIZED>
1

>  <PUBCHEM_CACTVS_COMPLEXITY>
516

>  <PUBCHEM_CACTVS_HBOND_ACCEPTOR>
2

>  <PUBCHEM_CACTVS_HBOND_DONOR>
0

>  <PUBCHEM_CACTVS_ROTATABLE_BOND>
3

>  <PUBCHEM_CACTVS_SUBSKEYS>
AAADceB7AAAEAAAAAAAAAAAAAAAAAAAAAAAwYIAAAAAAAAABQAAAHAAAAAAADAiBGAQywIMAAACgAyRiRACCAAAhAgAIiAAYZJgIICLAkZGEIAhggABIyAcQgMAOCAAAAAAAAAAQAAAAAAAAAAAAAAAAAA==

>  <PUBCHEM_IUPAC_OPENEYE_NAME>
[4-[[4-(dimethylamino)phenyl]-phenyl-methylene]cyclohexa-2,5-dien-1-ylidene]-dimethyl-ammonium chloride

>  <PUBCHEM_IUPAC_CAS_NAME>
[4-[[4-(dimethylamino)phenyl]-phenylmethylidene]-1-cyclohexa-2,5-dienylidene]-dimethylammonium chloride

>  <PUBCHEM_IUPAC_NAME_MARKUP>
[4-[[4-(dimethylamino)phenyl]-phenylmethylidene]cyclohexa-2,5-dien-1-ylidene]-dimethylazanium chloride

>  <PUBCHEM_IUPAC_NAME>
[4-[[4-(dimethylamino)phenyl]-phenylmethylidene]cyclohexa-2,5-dien-1-ylidene]-dimethylazanium chloride

>  <PUBCHEM_IUPAC_SYSTEMATIC_NAME>
[4-[[4-(dimethylamino)phenyl]-phenyl-methylidene]cyclohexa-2,5-dien-1-ylidene]-dimethyl-azanium chloride

>  <PUBCHEM_IUPAC_TRADITIONAL_NAME>
[4-[[4-(dimethylamino)phenyl]-phenyl-methylene]cyclohexa-2,5-dien-1-ylidene]-dimethyl-ammonium chloride

>  <PUBCHEM_IUPAC_INCHI>
InChI=1S/C23H25N2.ClH/c1-24(2)21-14-10-19(11-15-21)23(18-8-6-5-7-9-18)20-12-16-22(17-13-20)25(3)4;/h5-17H,1-4H3;1H/q+1;/p-1

>  <PUBCHEM_IUPAC_INCHIKEY>
FDZZZRQASAIRJF-UHFFFAOYSA-M

>  <PUBCHEM_EXACT_MASS>
364.1706265

>  <PUBCHEM_MOLECULAR_FORMULA>
C23H25ClN2

>  <PUBCHEM_MOLECULAR_WEIGHT>
364.9

>  <PUBCHEM_SMILES>
CN(C)C1=CC=C(C=C1)C(=C2C=CC(=[N+](C)C)C=C2)C3=CC=CC=C3.[Cl-]

>  <PUBCHEM_CONNECTIVITY_SMILES>
CN(C)C1=CC=C(C=C1)C(=C2C=CC(=[N+](C)C)C=C2)C3=CC=CC=C3.[Cl-]

>  <PUBCHEM_CACTVS_TPSA>
6.3

>  <PUBCHEM_MONOISOTOPIC_WEIGHT>
364.1706265

>  <PUBCHEM_TOTAL_CHARGE>
0

>  <PUBCHEM_HEAVY_ATOM_COUNT>
26

>  <PUBCHEM_ATOM_DEF_STEREO_COUNT>
0

>  <PUBCHEM_ATOM_UDEF_STEREO_COUNT>
0

>  <PUBCHEM_BOND_DEF_STEREO_COUNT>
0

>  <PUBCHEM_BOND_UDEF_STEREO_COUNT>
0

>  <PUBCHEM_ISOTOPIC_ATOM_COUNT>
0

>  <PUBCHEM_COMPONENT_COUNT>
2

>  <PUBCHEM_CACTVS_TAUTO_COUNT>
-1

>  <PUBCHEM_COORDINATE_TYPE>
1
5
255

>  <PUBCHEM_BONDANNOTATIONS>
10  15  8
18  20  8
19  21  8
20  26  8
21  26  8
5  10  8
5  9  8
7  18  8
7  19  8
8  14  8
8  15  8
9  14  8

$$$$
