
 OpenBabel08252612193D

 50 52  0  0  0  0  0  0  0  0999 V2000
    2.0756   -0.6469   -1.1633 C   0  0  0  0  0  0  0  0  0  0  0  0
    2.3664   -0.0940    0.1591 N   0  0  0  0  0  0  0  0  0  0  0  0
    2.5046    1.3646    0.1947 C   0  0  0  0  0  0  0  0  0  0  0  0
    3.2443   -0.7916    1.0001 C   0  0  0  0  0  0  0  0  0  0  0  0
    4.1072   -1.8015    0.5475 C   0  0  0  0  0  0  0  0  0  0  0  0
    4.9534   -2.4978    1.4229 C   0  0  0  0  0  0  0  0  0  0  0  0
    4.9472   -2.2113    2.7888 C   0  0  0  0  0  0  0  0  0  0  0  0
    4.0829   -1.2220    3.2643 C   0  0  0  0  0  0  0  0  0  0  0  0
    3.2543   -0.5210    2.3787 C   0  0  0  0  0  0  0  0  0  0  0  0
    5.8337   -2.9534    3.7269 C   0  0  0  0  0  0  0  0  0  0  0  0
    6.9839   -2.3878    4.1911 C   0  0  0  0  0  0  0  0  0  0  0  0
    7.8671   -3.0863    5.1292 C   0  0  0  0  0  0  0  0  0  0  0  0
    8.8394   -2.4461    5.7934 C   0  0  0  0  0  0  0  0  0  0  0  0
    9.0737   -0.9789    5.5853 C   0  0  0  0  0  0  0  0  0  0  0  0
    9.8168   -0.2687    6.3833 N   0  3  0  0  0  0  0  0  0  0  0  0
   10.1273    1.1700    6.1098 C   0  0  0  0  0  0  0  0  0  0  0  0
   10.3868   -0.8183    7.6541 C   0  0  0  0  0  0  0  0  0  0  0  0
    8.4023   -0.3941    4.3777 C   0  0  0  0  0  0  0  0  0  0  0  0
    7.4349   -1.0675    3.7407 C   0  0  0  0  0  0  0  0  0  0  0  0
    5.4039   -4.2951    4.2081 C   0  0  0  0  0  0  0  0  0  0  0  0
    4.6560   -4.4079    5.3885 C   0  0  0  0  0  0  0  0  0  0  0  0
    4.2553   -5.6623    5.8508 C   0  0  0  0  0  0  0  0  0  0  0  0
    4.5945   -6.8095    5.1350 C   0  0  0  0  0  0  0  0  0  0  0  0
    5.3329   -6.7054    3.9563 C   0  0  0  0  0  0  0  0  0  0  0  0
    5.7380   -5.4522    3.4925 C   0  0  0  0  0  0  0  0  0  0  0  0
    1.2387   -0.1062   -1.6198 H   0  0  0  0  0  0  0  0  0  0  0  0
    1.7665   -1.6959   -1.0948 H   0  0  0  0  0  0  0  0  0  0  0  0
    2.9356   -0.5600   -1.8368 H   0  0  0  0  0  0  0  0  0  0  0  0
    1.8100    1.8328   -0.5128 H   0  0  0  0  0  0  0  0  0  0  0  0
    3.5204    1.6706   -0.0838 H   0  0  0  0  0  0  0  0  0  0  0  0
    2.2638    1.7735    1.1813 H   0  0  0  0  0  0  0  0  0  0  0  0
    4.1528   -2.0601   -0.5070 H   0  0  0  0  0  0  0  0  0  0  0  0
    5.6049   -3.2701    1.0207 H   0  0  0  0  0  0  0  0  0  0  0  0
    4.0326   -0.9942    4.3251 H   0  0  0  0  0  0  0  0  0  0  0  0
    2.5685    0.2157    2.7890 H   0  0  0  0  0  0  0  0  0  0  0  0
    7.7319   -4.1535    5.2945 H   0  0  0  0  0  0  0  0  0  0  0  0
    9.4647   -3.0114    6.4747 H   0  0  0  0  0  0  0  0  0  0  0  0
    9.1939    1.7390    6.1469 H   0  0  0  0  0  0  0  0  0  0  0  0
   10.6027    1.2414    5.1272 H   0  0  0  0  0  0  0  0  0  0  0  0
   10.8209    1.5498    6.8639 H   0  0  0  0  0  0  0  0  0  0  0  0
    9.6461   -1.4623    8.1374 H   0  0  0  0  0  0  0  0  0  0  0  0
   10.6157    0.0048    8.3365 H   0  0  0  0  0  0  0  0  0  0  0  0
   11.2966   -1.3700    7.4048 H   0  0  0  0  0  0  0  0  0  0  0  0
    8.6740    0.5899    4.0139 H   0  0  0  0  0  0  0  0  0  0  0  0
    6.9715   -0.6158    2.8656 H   0  0  0  0  0  0  0  0  0  0  0  0
    4.3750   -3.5203    5.9495 H   0  0  0  0  0  0  0  0  0  0  0  0
    3.6705   -5.7455    6.7636 H   0  0  0  0  0  0  0  0  0  0  0  0
    4.2706   -7.7856    5.4892 H   0  0  0  0  0  0  0  0  0  0  0  0
    5.5866   -7.6023    3.3957 H   0  0  0  0  0  0  0  0  0  0  0  0
    6.3081   -5.3873    2.5690 H   0  0  0  0  0  0  0  0  0  0  0  0
  1  2  1  0  0  0  0
  1 26  1  0  0  0  0
  1 27  1  0  0  0  0
  1 28  1  0  0  0  0
  2  3  1  0  0  0  0
  2  4  1  0  0  0  0
  3 29  1  0  0  0  0
  3 30  1  0  0  0  0
  3 31  1  0  0  0  0
  4  5  2  0  0  0  0
  4  9  1  0  0  0  0
  5  6  1  0  0  0  0
  5 32  1  0  0  0  0
  6  7  2  0  0  0  0
  6 33  1  0  0  0  0
  7  8  1  0  0  0  0
  7 10  1  0  0  0  0
  8  9  2  0  0  0  0
  8 34  1  0  0  0  0
  9 35  1  0  0  0  0
 10 11  2  3  0  0  0
 10 20  1  0  0  0  0
 11 12  1  0  0  0  0
 11 19  1  0  0  0  0
 12 13  2  0  0  0  0
 12 36  1  0  0  0  0
 13 14  1  0  0  0  0
 13 37  1  0  0  0  0
 14 15  2  0  0  0  0
 14 18  1  0  0  0  0
 15 16  1  0  0  0  0
 15 17  1  0  0  0  0
 16 38  1  0  0  0  0
 16 39  1  0  0  0  0
 16 40  1  0  0  0  0
 17 41  1  0  0  0  0
 17 42  1  0  0  0  0
 17 43  1  0  0  0  0
 18 19  2  0  0  0  0
 18 44  1  0  0  0  0
 19 45  1  0  0  0  0
 20 21  2  0  0  0  0
 20 25  1  0  0  0  0
 21 22  1  0  0  0  0
 21 46  1  0  0  0  0
 22 23  2  0  0  0  0
 22 47  1  0  0  0  0
 23 24  1  0  0  0  0
 23 48  1  0  0  0  0
 24 25  2  0  0  0  0
 24 49  1  0  0  0  0
 25 50  1  0  0  0  0
M  CHG  1  15   1
M  END
$$$$
