=
 OpenBabel08252612203D

 25 27  0  0  0  0  0  0  0  0999 V2000
    5.4770    4.6560    1.3430 C   0  0  0  0  0  0  0  0  0  0  0  0
    6.5300    5.0100    0.5460 C   0  0  0  0  0  0  0  0  0  0  0  0
    7.3110    6.2240    0.7900 C   0  0  0  0  0  0  0  0  0  0  0  0
    8.2390    6.6640   -0.0720 C   0  0  0  0  0  0  0  0  0  0  0  0
    8.5220    5.9300   -1.3490 C   0  0  0  0  0  0  0  0  0  0  0  0
    9.2720    6.4350   -2.2870 N   0  0  0  0  0  0  0  0  0  0  0  0
    9.6200    5.6830   -3.5320 C   0  0  0  0  0  0  0  0  0  0  0  0
    9.8110    7.8300   -2.2090 C   0  0  0  0  0  0  0  0  0  0  0  0
    7.8890    4.5760   -1.4630 C   0  0  0  0  0  0  0  0  0  0  0  0
    6.9720    4.1700   -0.5730 C   0  0  0  0  0  0  0  0  0  0  0  0
    3.3260    0.9810    0.5440 C   0  0  0  0  0  0  0  0  0  0  0  0
    4.4490    1.0050    1.3890 C   0  0  0  0  0  0  0  0  0  0  0  0
    5.1450    2.1910    1.6570 C   0  0  0  0  0  0  0  0  0  0  0  0
    4.7330    3.3950    1.0820 C   0  0  0  0  0  0  0  0  0  0  0  0
    3.6140    3.3970    0.2480 C   0  0  0  0  0  0  0  0  0  0  0  0
    2.9230    2.2060   -0.0100 C   0  0  0  0  0  0  0  0  0  0  0  0
    1.3040   -0.1600   -0.2770 C   0  0  0  0  0  0  0  0  0  0  0  0
    2.6420   -0.2240    0.3130 N   0  0  0  0  0  0  0  0  0  0  0  0
    3.4780   -1.3070   -0.2150 C   0  0  0  0  0  0  0  0  0  0  0  0
    5.0150    5.5400    2.4500 C   0  0  0  0  0  0  0  0  0  0  0  0
    4.2170    6.6580    2.1710 C   0  0  0  0  0  0  0  0  0  0  0  0
    3.7550    7.4720    3.2080 C   0  0  0  0  0  0  0  0  0  0  0  0
    4.0780    7.1700    4.5300 C   0  0  0  0  0  0  0  0  0  0  0  0
    4.8670    6.0560    4.8170 C   0  0  0  0  0  0  0  0  0  0  0  0
    5.3350    5.2430    3.7820 C   0  0  0  0  0  0  0  0  0  0  0  0
  1 20  1  0  0  0  0
  2  3  1  0  0  0  0
  2  1  1  0  0  0  0
  4  3  2  0  0  0  0
  5  4  1  0  0  0  0
  6  8  1  0  0  0  0
  6  5  1  0  0  0  0
  7  6  1  0  0  0  0
  9  5  2  0  0  0  0
  9 10  1  0  0  0  0
 10  2  2  0  0  0  0
 11 12  1  0  0  0  0
 12 13  2  0  0  0  0
 14  1  1  0  0  0  0
 14 13  1  0  0  0  0
 15 14  2  0  0  0  0
 16 15  1  0  0  0  0
 16 11  2  0  0  0  0
 17 18  1  0  0  0  0
 18 11  1  0  0  0  0
 19 18  1  0  0  0  0
 20 25  1  0  0  0  0
 21 20  2  0  0  0  0
 21 22  1  0  0  0  0
 22 23  2  0  0  0  0
 23 24  1  0  0  0  0
 25 24  2  0  0  0  0
M  END
>  <REMARK>
  Name = 
  7 active torsions:
  status: ('A' for Active; 'I' for Inactive)
    1  A    between atoms: C_1  and  N_2
    2  A    between atoms: N_2  and  C_3
    3  A    between atoms: N_2  and  C_4
    4  A    between atoms: C_7  and  C_10
    5  A    between atoms: C_10  and  C_20
    6  A    between atoms: N_15  and  C_16
    7  A    between atoms: N_15  and  C_17
                            x       y       z     vdW  Elec       q    Type
                         _______ _______ _______ _____ _____    ______ ____

>  <TORSDO>
F 3

$$$$
