@<TRIPOS>MOLECULE
/content/drive/MyDrive/MG_docking_project/01_ligand/mg_ligand.pdbqt
 25 27 0 0 0
SMALL
GASTEIGER

@<TRIPOS>ATOM
      1  C          3.7570   -0.8590    0.6100 C.2     1  UNL1        0.0360
      2  C          3.0750   -1.1510   -0.5860 C.2     1  UNL1        0.0260
      3  C          1.8290   -0.5880   -0.8980 C.2     1  UNL1        0.0110
      4  C          1.2090    0.2860   -0.0070 C.2     1  UNL1       -0.0170
      5  C          1.8550    0.5940    1.1890 C.2     1  UNL1        0.0110
      6  C          3.1010    0.0230    1.4880 C.2     1  UNL1        0.0260
      7  N          4.9880   -1.4460    0.9270 N.pl3   1  UNL1       -0.3780
      8  C          5.7850   -0.8750    2.0140 C.3     1  UNL1        0.1430
      9  C          5.7620   -2.0820   -0.1400 C.3     1  UNL1        0.1430
     10  C         -0.1240    0.8660   -0.3180 C.3     1  UNL1       -0.0040
     11  C         -1.2700    0.2210    0.0560 C.2     1  UNL1       -0.0170
     12  C         -1.2370   -1.0560    0.7740 C.2     1  UNL1        0.0150
     13  C         -2.5960    0.7700   -0.2400 C.2     1  UNL1        0.0150
     14  C         -2.3480   -1.7050    1.1490 C.2     1  UNL1        0.0790
     15  C         -3.7310    0.1530    0.1190 C.2     1  UNL1        0.0790
     16  C         -3.7110   -1.1550    0.8530 C.2     1  UNL1        0.1990
     17  N         -4.8030   -1.7700    1.2100 N.pl3   1  UNL1       -0.2350
     18  C         -4.7910   -3.1260    1.8450 C.3     1  UNL1        0.4330
     19  C         -6.1630   -1.1740    1.0160 C.3     1  UNL1        0.4330
     20  C         -0.1810    2.1620   -1.0450 C.2     1  UNL1       -0.0170
     21  C         -0.2120    2.1850   -2.4460 C.2     1  UNL1        0.0090
     22  C         -0.2000    3.3700   -0.3360 C.2     1  UNL1        0.0090
     23  C         -0.2720    3.4020   -3.1270 C.2     1  UNL1        0.0010
     24  C         -0.2590    4.5850   -1.0200 C.2     1  UNL1        0.0010
     25  C         -0.2970    4.6000   -2.4140 C.2     1  UNL1        0.0000
@<TRIPOS>BOND
     1    23    21    1
     2    23    25    2
     3    21    20    2
     4    25    24    1
     5    20    22    1
     6    20    10    1
     7    24    22    2
     8     3     2    1
     9     3     4    2
    10     2     1    2
    11    10     4    1
    12    10    11    1
    13    13    11    2
    14    13    15    1
    15     9     7    1
    16     4     5    1
    17    11    12    1
    18    15    16    2
    19     1     7    1
    20     1     6    1
    21    12    14    2
    22    16    14    1
    23    16    17    1
    24     7     8    1
    25    19    17    1
    26     5     6    2
    27    17    18    1
