Conformer_7
     RDKit          3D

 50 52  0  0  0  0  0  0  0  0999 V2000
    5.1549    0.7834   -4.0495 C   0  0  0  0  0  0  0  0  0  0  0  0
    3.7450    0.3865   -4.1518 N   0  0  0  0  0  0  0  0  0  0  0  0
    3.1699    0.1490   -5.4817 C   0  0  0  0  0  0  0  0  0  0  0  0
    2.9327    0.2323   -2.9583 C   0  0  0  0  0  0  0  0  0  0  0  0
    1.7527   -0.5406   -2.9804 C   0  0  0  0  0  0  0  0  0  0  0  0
    0.9720   -0.6876   -1.8312 C   0  0  0  0  0  0  0  0  0  0  0  0
    1.3424   -0.0563   -0.6357 C   0  0  0  0  0  0  0  0  0  0  0  0
    2.5211    0.6991   -0.5970 C   0  0  0  0  0  0  0  0  0  0  0  0
    3.3047    0.8474   -1.7443 C   0  0  0  0  0  0  0  0  0  0  0  0
    0.5353   -0.2398    0.5957 C   0  0  0  0  0  0  0  0  0  0  0  0
   -0.7726    0.1326    0.6607 C   0  0  0  0  0  0  0  0  0  0  0  0
   -1.6288   -0.2391    1.8182 C   0  0  0  0  0  0  0  0  0  0  0  0
   -2.9120    0.1242    1.8830 C   0  0  0  0  0  0  0  0  0  0  0  0
   -3.5548    0.9247    0.7988 C   0  0  0  0  0  0  0  0  0  0  0  0
   -4.8267    1.2869    0.8620 N   0  0  0  0  0  0  0  0  0  0  0  0
   -5.4514    2.0754   -0.2155 C   0  0  0  0  0  0  0  0  0  0  0  0
   -5.6706    0.9168    2.0125 C   0  0  0  0  0  0  0  0  0  0  0  0
   -2.6899    1.2957   -0.3603 C   0  0  0  0  0  0  0  0  0  0  0  0
   -1.4076    0.9286   -0.4230 C   0  0  0  0  0  0  0  0  0  0  0  0
    1.2350   -0.8522    1.7518 C   0  0  0  0  0  0  0  0  0  0  0  0
    1.3606   -0.1510    2.9638 C   0  0  0  0  0  0  0  0  0  0  0  0
    2.0521   -0.7196    4.0376 C   0  0  0  0  0  0  0  0  0  0  0  0
    2.6331   -1.9839    3.9058 C   0  0  0  0  0  0  0  0  0  0  0  0
    2.5275   -2.6797    2.6983 C   0  0  0  0  0  0  0  0  0  0  0  0
    1.8364   -2.1149    1.6219 C   0  0  0  0  0  0  0  0  0  0  0  0
    5.2257    1.8518   -3.7565 H   0  0  0  0  0  0  0  0  0  0  0  0
    5.6882    0.6524   -5.0147 H   0  0  0  0  0  0  0  0  0  0  0  0
    5.6712    0.1524   -3.2952 H   0  0  0  0  0  0  0  0  0  0  0  0
    2.2067    0.6934   -5.5795 H   0  0  0  0  0  0  0  0  0  0  0  0
    3.8411    0.5119   -6.2887 H   0  0  0  0  0  0  0  0  0  0  0  0
    3.0032   -0.9381   -5.6321 H   0  0  0  0  0  0  0  0  0  0  0  0
    1.4334   -1.0480   -3.8799 H   0  0  0  0  0  0  0  0  0  0  0  0
    0.0788   -1.2993   -1.8711 H   0  0  0  0  0  0  0  0  0  0  0  0
    2.8301    1.1818    0.3223 H   0  0  0  0  0  0  0  0  0  0  0  0
    4.1970    1.4537   -1.6749 H   0  0  0  0  0  0  0  0  0  0  0  0
   -1.2374   -0.8464    2.6240 H   0  0  0  0  0  0  0  0  0  0  0  0
   -3.4718   -0.1954    2.7510 H   0  0  0  0  0  0  0  0  0  0  0  0
   -6.5210    2.2927   -0.0138 H   0  0  0  0  0  0  0  0  0  0  0  0
   -5.4075    1.5138   -1.1732 H   0  0  0  0  0  0  0  0  0  0  0  0
   -4.9336    3.0527   -0.3217 H   0  0  0  0  0  0  0  0  0  0  0  0
   -6.7079    1.2997    1.9155 H   0  0  0  0  0  0  0  0  0  0  0  0
   -5.7369   -0.1891    2.0962 H   0  0  0  0  0  0  0  0  0  0  0  0
   -5.2503    1.3461    2.9471 H   0  0  0  0  0  0  0  0  0  0  0  0
   -3.0750    1.8841   -1.1816 H   0  0  0  0  0  0  0  0  0  0  0  0
   -0.8314    1.2600   -1.2770 H   0  0  0  0  0  0  0  0  0  0  0  0
    0.9263    0.8352    3.0733 H   0  0  0  0  0  0  0  0  0  0  0  0
    2.1416   -0.1782    4.9704 H   0  0  0  0  0  0  0  0  0  0  0  0
    3.1694   -2.4221    4.7375 H   0  0  0  0  0  0  0  0  0  0  0  0
    2.9833   -3.6559    2.5954 H   0  0  0  0  0  0  0  0  0  0  0  0
    1.7645   -2.6627    0.6902 H   0  0  0  0  0  0  0  0  0  0  0  0
  1  2  1  0
  2  3  1  0
  2  4  1  0
  4  5  2  0
  5  6  1  0
  6  7  2  0
  7  8  1  0
  8  9  2  0
  7 10  1  0
 10 11  2  3
 11 12  1  0
 12 13  2  0
 13 14  1  0
 14 15  2  3
 15 16  1  0
 15 17  1  0
 14 18  1  0
 18 19  2  0
 10 20  1  0
 20 21  2  0
 21 22  1  0
 22 23  2  0
 23 24  1  0
 24 25  2  0
  9  4  1  0
 19 11  1  0
 25 20  1  0
  1 26  1  0
  1 27  1  0
  1 28  1  0
  3 29  1  0
  3 30  1  0
  3 31  1  0
  5 32  1  0
  6 33  1  0
  8 34  1  0
  9 35  1  0
 12 36  1  0
 13 37  1  0
 16 38  1  0
 16 39  1  0
 16 40  1  0
 17 41  1  0
 17 42  1  0
 17 43  1  0
 18 44  1  0
 19 45  1  0
 21 46  1  0
 22 47  1  0
 23 48  1  0
 24 49  1  0
 25 50  1  0
M  CHG  1  15   1
M  END
>  <Energy>  (1) 
73.05

>  <GasteigerCharges>  (1) 
0.0061, -0.3777, 0.0061, 0.0361, -0.0382, -0.0523, -0.0170, -0.0523, -0.0382, -0.0039, -0.0167, -0.0478, 0.0099, 0.1990, -0.2353, 0.1327, 0.1327, 0.0099, -0.0478, -0.0172, -0.0543, -0.0617, -0.0622, -0.0617, -0.0543, 0.0456, 0.0456, 0.0456, 0.0456, 0.0456, 0.0456, 0.0645, 0.0630, 0.0630, 0.0645, 0.0632, 0.0693, 0.1000, 0.1000, 0.1000, 0.1000, 0.1000, 0.1000, 0.0693, 0.0632, 0.0629, 0.0623, 0.0623, 0.0623, 0.0629

