Conformer_15
     RDKit          3D

 50 52  0  0  0  0  0  0  0  0999 V2000
    5.7944    0.9223   -1.2957 C   0  0  0  0  0  0  0  0  0  0  0  0
    4.9985   -0.2090   -1.7882 N   0  0  0  0  0  0  0  0  0  0  0  0
    5.6159   -1.1556   -2.7255 C   0  0  0  0  0  0  0  0  0  0  0  0
    3.6239   -0.3879   -1.3563 C   0  0  0  0  0  0  0  0  0  0  0  0
    2.7247   -1.1734   -2.1078 C   0  0  0  0  0  0  0  0  0  0  0  0
    1.4018   -1.3434   -1.6913 C   0  0  0  0  0  0  0  0  0  0  0  0
    0.9411   -0.7249   -0.5223 C   0  0  0  0  0  0  0  0  0  0  0  0
    1.8299    0.0429    0.2428 C   0  0  0  0  0  0  0  0  0  0  0  0
    3.1530    0.2156   -0.1712 C   0  0  0  0  0  0  0  0  0  0  0  0
   -0.4545   -0.9402   -0.0669 C   0  0  0  0  0  0  0  0  0  0  0  0
   -1.3178    0.0956    0.1209 C   0  0  0  0  0  0  0  0  0  0  0  0
   -2.6404   -0.1044    0.7705 C   0  0  0  0  0  0  0  0  0  0  0  0
   -3.4877    0.9107    0.9566 C   0  0  0  0  0  0  0  0  0  0  0  0
   -3.1541    2.2991    0.5204 C   0  0  0  0  0  0  0  0  0  0  0  0
   -3.9937    3.3064    0.7028 N   0  0  0  0  0  0  0  0  0  0  0  0
   -5.3042    3.1024    1.3462 C   0  0  0  0  0  0  0  0  0  0  0  0
   -3.6527    4.6737    0.2700 C   0  0  0  0  0  0  0  0  0  0  0  0
   -1.8253    2.4934   -0.1321 C   0  0  0  0  0  0  0  0  0  0  0  0
   -0.9793    1.4766   -0.3143 C   0  0  0  0  0  0  0  0  0  0  0  0
   -0.8552   -2.3486    0.1722 C   0  0  0  0  0  0  0  0  0  0  0  0
   -1.9091   -2.9251   -0.5581 C   0  0  0  0  0  0  0  0  0  0  0  0
   -2.2581   -4.2633   -0.3530 C   0  0  0  0  0  0  0  0  0  0  0  0
   -1.5511   -5.0379    0.5708 C   0  0  0  0  0  0  0  0  0  0  0  0
   -0.4908   -4.4766    1.2879 C   0  0  0  0  0  0  0  0  0  0  0  0
   -0.1387   -3.1385    1.0863 C   0  0  0  0  0  0  0  0  0  0  0  0
    6.0603    0.7611   -0.2301 H   0  0  0  0  0  0  0  0  0  0  0  0
    5.2158    1.8648   -1.3996 H   0  0  0  0  0  0  0  0  0  0  0  0
    6.7350    1.0434   -1.8735 H   0  0  0  0  0  0  0  0  0  0  0  0
    5.1865   -1.0167   -3.7396 H   0  0  0  0  0  0  0  0  0  0  0  0
    6.7148   -1.0089   -2.7911 H   0  0  0  0  0  0  0  0  0  0  0  0
    5.4386   -2.1970   -2.3823 H   0  0  0  0  0  0  0  0  0  0  0  0
    3.0338   -1.6537   -3.0255 H   0  0  0  0  0  0  0  0  0  0  0  0
    0.7324   -1.9522   -2.2870 H   0  0  0  0  0  0  0  0  0  0  0  0
    1.4979    0.5044    1.1650 H   0  0  0  0  0  0  0  0  0  0  0  0
    3.8062    0.8117    0.4505 H   0  0  0  0  0  0  0  0  0  0  0  0
   -2.9337   -1.0779    1.1410 H   0  0  0  0  0  0  0  0  0  0  0  0
   -4.4246    0.6872    1.4478 H   0  0  0  0  0  0  0  0  0  0  0  0
   -5.1654    2.7219    2.3808 H   0  0  0  0  0  0  0  0  0  0  0  0
   -5.9120    2.3854    0.7538 H   0  0  0  0  0  0  0  0  0  0  0  0
   -5.8891    4.0428    1.4199 H   0  0  0  0  0  0  0  0  0  0  0  0
   -4.4585    5.4020    0.4985 H   0  0  0  0  0  0  0  0  0  0  0  0
   -3.4934    4.6967   -0.8293 H   0  0  0  0  0  0  0  0  0  0  0  0
   -2.7384    5.0230    0.7959 H   0  0  0  0  0  0  0  0  0  0  0  0
   -1.5118    3.4653   -0.4874 H   0  0  0  0  0  0  0  0  0  0  0  0
   -0.0471    1.6838   -0.8234 H   0  0  0  0  0  0  0  0  0  0  0  0
   -2.4555   -2.3386   -1.2866 H   0  0  0  0  0  0  0  0  0  0  0  0
   -3.0737   -4.7012   -0.9138 H   0  0  0  0  0  0  0  0  0  0  0  0
   -1.8215   -6.0741    0.7273 H   0  0  0  0  0  0  0  0  0  0  0  0
    0.0600   -5.0793    1.9984 H   0  0  0  0  0  0  0  0  0  0  0  0
    0.6872   -2.7162    1.6456 H   0  0  0  0  0  0  0  0  0  0  0  0
  1  2  1  0
  2  3  1  0
  2  4  1  0
  4  5  2  0
  5  6  1  0
  6  7  2  0
  7  8  1  0
  8  9  2  0
  7 10  1  0
 10 11  2  3
 11 12  1  0
 12 13  2  0
 13 14  1  0
 14 15  2  3
 15 16  1  0
 15 17  1  0
 14 18  1  0
 18 19  2  0
 10 20  1  0
 20 21  2  0
 21 22  1  0
 22 23  2  0
 23 24  1  0
 24 25  2  0
  9  4  1  0
 19 11  1  0
 25 20  1  0
  1 26  1  0
  1 27  1  0
  1 28  1  0
  3 29  1  0
  3 30  1  0
  3 31  1  0
  5 32  1  0
  6 33  1  0
  8 34  1  0
  9 35  1  0
 12 36  1  0
 13 37  1  0
 16 38  1  0
 16 39  1  0
 16 40  1  0
 17 41  1  0
 17 42  1  0
 17 43  1  0
 18 44  1  0
 19 45  1  0
 21 46  1  0
 22 47  1  0
 23 48  1  0
 24 49  1  0
 25 50  1  0
M  CHG  1  15   1
M  END
>  <Energy>  (1) 
73.05

>  <GasteigerCharges>  (1) 
0.0061, -0.3777, 0.0061, 0.0361, -0.0382, -0.0523, -0.0170, -0.0523, -0.0382, -0.0039, -0.0167, -0.0478, 0.0099, 0.1990, -0.2353, 0.1327, 0.1327, 0.0099, -0.0478, -0.0172, -0.0543, -0.0617, -0.0622, -0.0617, -0.0543, 0.0456, 0.0456, 0.0456, 0.0456, 0.0456, 0.0456, 0.0645, 0.0630, 0.0630, 0.0645, 0.0632, 0.0693, 0.1000, 0.1000, 0.1000, 0.1000, 0.1000, 0.1000, 0.0693, 0.0632, 0.0629, 0.0623, 0.0623, 0.0623, 0.0629

