Conformer_17
     RDKit          3D

 50 52  0  0  0  0  0  0  0  0999 V2000
   -6.5768    1.2180    0.8800 C   0  0  0  0  0  0  0  0  0  0  0  0
   -5.3402    1.9668    1.1366 N   0  0  0  0  0  0  0  0  0  0  0  0
   -5.4151    3.2199    1.8982 C   0  0  0  0  0  0  0  0  0  0  0  0
   -4.0645    1.4762    0.6466 C   0  0  0  0  0  0  0  0  0  0  0  0
   -2.9644    2.3460    0.4942 C   0  0  0  0  0  0  0  0  0  0  0  0
   -1.7375    1.8722    0.0229 C   0  0  0  0  0  0  0  0  0  0  0  0
   -1.5746    0.5167   -0.2949 C   0  0  0  0  0  0  0  0  0  0  0  0
   -2.6646   -0.3529   -0.1644 C   0  0  0  0  0  0  0  0  0  0  0  0
   -3.8934    0.1178    0.3058 C   0  0  0  0  0  0  0  0  0  0  0  0
   -0.2840    0.0172   -0.8298 C   0  0  0  0  0  0  0  0  0  0  0  0
    0.8749    0.1172   -0.1224 C   0  0  0  0  0  0  0  0  0  0  0  0
    0.8800    0.5422    1.3025 C   0  0  0  0  0  0  0  0  0  0  0  0
    2.0155    0.6397    1.9983 C   0  0  0  0  0  0  0  0  0  0  0  0
    3.3401    0.3301    1.3826 C   0  0  0  0  0  0  0  0  0  0  0  0
    4.4670    0.4272    2.0706 N   0  0  0  0  0  0  0  0  0  0  0  0
    4.4664    0.8498    3.4829 C   0  0  0  0  0  0  0  0  0  0  0  0
    5.7689    0.1168    1.4530 C   0  0  0  0  0  0  0  0  0  0  0  0
    3.3287   -0.0947   -0.0488 C   0  0  0  0  0  0  0  0  0  0  0  0
    2.1910   -0.1935   -0.7408 C   0  0  0  0  0  0  0  0  0  0  0  0
   -0.3286   -0.5973   -2.1796 C   0  0  0  0  0  0  0  0  0  0  0  0
    0.0531   -1.9372   -2.3672 C   0  0  0  0  0  0  0  0  0  0  0  0
   -0.0253   -2.5204   -3.6354 C   0  0  0  0  0  0  0  0  0  0  0  0
   -0.4964   -1.7763   -4.7206 C   0  0  0  0  0  0  0  0  0  0  0  0
   -0.8942   -0.4489   -4.5383 C   0  0  0  0  0  0  0  0  0  0  0  0
   -0.8170    0.1385   -3.2718 C   0  0  0  0  0  0  0  0  0  0  0  0
   -7.4777    1.8184    1.1273 H   0  0  0  0  0  0  0  0  0  0  0  0
   -6.5945    0.2958    1.4975 H   0  0  0  0  0  0  0  0  0  0  0  0
   -6.6398    0.9504   -0.1962 H   0  0  0  0  0  0  0  0  0  0  0  0
   -5.2460    4.0834    1.2214 H   0  0  0  0  0  0  0  0  0  0  0  0
   -4.6500    3.2189    2.7034 H   0  0  0  0  0  0  0  0  0  0  0  0
   -6.4069    3.3467    2.3812 H   0  0  0  0  0  0  0  0  0  0  0  0
   -3.0482    3.3991    0.7233 H   0  0  0  0  0  0  0  0  0  0  0  0
   -0.9131    2.5643   -0.0998 H   0  0  0  0  0  0  0  0  0  0  0  0
   -2.5606   -1.4006   -0.4194 H   0  0  0  0  0  0  0  0  0  0  0  0
   -4.7031   -0.5909    0.4083 H   0  0  0  0  0  0  0  0  0  0  0  0
   -0.0465    0.7506    1.8215 H   0  0  0  0  0  0  0  0  0  0  0  0
    1.9353    0.9429    3.0330 H   0  0  0  0  0  0  0  0  0  0  0  0
    5.4888    0.8848    3.9134 H   0  0  0  0  0  0  0  0  0  0  0  0
    3.8784    0.1326    4.0948 H   0  0  0  0  0  0  0  0  0  0  0  0
    4.0384    1.8710    3.5748 H   0  0  0  0  0  0  0  0  0  0  0  0
    5.7856   -0.9398    1.1098 H   0  0  0  0  0  0  0  0  0  0  0  0
    6.6133    0.2426    2.1623 H   0  0  0  0  0  0  0  0  0  0  0  0
    5.9568    0.7995    0.5968 H   0  0  0  0  0  0  0  0  0  0  0  0
    4.2460   -0.3253   -0.5725 H   0  0  0  0  0  0  0  0  0  0  0  0
    2.2601   -0.4754   -1.7834 H   0  0  0  0  0  0  0  0  0  0  0  0
    0.4069   -2.5280   -1.5311 H   0  0  0  0  0  0  0  0  0  0  0  0
    0.2747   -3.5508   -3.7760 H   0  0  0  0  0  0  0  0  0  0  0  0
   -0.5579   -2.2296   -5.7015 H   0  0  0  0  0  0  0  0  0  0  0  0
   -1.2648    0.1244   -5.3783 H   0  0  0  0  0  0  0  0  0  0  0  0
   -1.1317    1.1669   -3.1428 H   0  0  0  0  0  0  0  0  0  0  0  0
  1  2  1  0
  2  3  1  0
  2  4  1  0
  4  5  2  0
  5  6  1  0
  6  7  2  0
  7  8  1  0
  8  9  2  0
  7 10  1  0
 10 11  2  3
 11 12  1  0
 12 13  2  0
 13 14  1  0
 14 15  2  3
 15 16  1  0
 15 17  1  0
 14 18  1  0
 18 19  2  0
 10 20  1  0
 20 21  2  0
 21 22  1  0
 22 23  2  0
 23 24  1  0
 24 25  2  0
  9  4  1  0
 19 11  1  0
 25 20  1  0
  1 26  1  0
  1 27  1  0
  1 28  1  0
  3 29  1  0
  3 30  1  0
  3 31  1  0
  5 32  1  0
  6 33  1  0
  8 34  1  0
  9 35  1  0
 12 36  1  0
 13 37  1  0
 16 38  1  0
 16 39  1  0
 16 40  1  0
 17 41  1  0
 17 42  1  0
 17 43  1  0
 18 44  1  0
 19 45  1  0
 21 46  1  0
 22 47  1  0
 23 48  1  0
 24 49  1  0
 25 50  1  0
M  CHG  1  15   1
M  END
>  <Energy>  (1) 
73.05

>  <GasteigerCharges>  (1) 
0.0061, -0.3777, 0.0061, 0.0361, -0.0382, -0.0523, -0.0170, -0.0523, -0.0382, -0.0039, -0.0167, -0.0478, 0.0099, 0.1990, -0.2353, 0.1327, 0.1327, 0.0099, -0.0478, -0.0172, -0.0543, -0.0617, -0.0622, -0.0617, -0.0543, 0.0456, 0.0456, 0.0456, 0.0456, 0.0456, 0.0456, 0.0645, 0.0630, 0.0630, 0.0645, 0.0632, 0.0693, 0.1000, 0.1000, 0.1000, 0.1000, 0.1000, 0.1000, 0.0693, 0.0632, 0.0629, 0.0623, 0.0623, 0.0623, 0.0629

